/*--------------------------------*- C++ -*----------------------------------*\
  =========                 |
  \\      /  F ield         | OpenFOAM: The Open Source CFD Toolbox
   \\    /   O peration     | Website:  https://openfoam.org
    \\  /    A nd           | Version:  10
     \\/     M anipulation  |
\*---------------------------------------------------------------------------*/
FoamFile
{
    format      ascii;
    class       dictionary;
    location    "system";
    object      fvSchemes;
}
// * * * * * * * * * * * * * * * * * * * * * * * * * * * * * * * * * * * * * //

ddtSchemes
{
	default			CrankNicolson 0.7;
}

gradSchemes
{
    default         Gauss linear;
}

divSchemes
{
    default								none;
	div(phi,U)							Gauss limitedLinearV 1;
	div(phi,k)							Gauss upwind;
	div(phi,omega)						Gauss upwind;
	div(phi,c)							Gauss limitedLinear01 1;
    div((nuEff*dev2(T(grad(U)))))		Gauss linear;
}

laplacianSchemes
{
    default			Gauss linear corrected;
}

interpolationSchemes
{
    default         linear;
}

snGradSchemes
{
    default         corrected;
}

wallDist
{
    method	    	meshWave;
}

// ************************************************************************* //
