/*--------------------------------*- C++ -*----------------------------------*\
  =========                 |
  \\      /  F ield         | OpenFOAM: The Open Source CFD Toolbox
   \\    /   O peration     | Website:  https://openfoam.org
    \\  /    A nd           | Version:  10
     \\/     M anipulation  |
\*---------------------------------------------------------------------------*/
FoamFile
{
    format      ascii;
    class       volScalarField;
    location    "0";
    object      nut;
}
// * * * * * * * * * * * * * * * * * * * * * * * * * * * * * * * * * * * * * //

dimensions      [0 2 -1 0 0 0 0];

internalField   uniform 0;

boundaryField
{
    #includeEtc "caseDicts/setConstraintTypes"

    walls
    {
        type            nutFunction;
        value           nutValue;
    }
    bottom
    {
        type            nutFunction;
        value           nutValue;
    }
    top
    {
        type            calculated;
        value           $internalField;
    }
    object
    {
        type            nutFunction;
        value           nutValue;
    }
}

// ************************************************************************* //
