/*--------------------------------*- C++ -*----------------------------------*\
  =========                 |
  \\      /  F ield         | OpenFOAM: The Open Source CFD Toolbox
   \\    /   O peration     | Website:  https://openfoam.org
    \\  /    A nd           | Version:  10
     \\/     M anipulation  |
\*---------------------------------------------------------------------------*/
FoamFile
{
    format      ascii;
    class       dictionary;
    location    "constant";
    object      dynamicMeshDict;
}
// * * * * * * * * * * * * * * * * * * * * * * * * * * * * * * * * * * * * * //

topoChanger
{
    type              refiner2D;

    libs              ("libfvMeshTopoChangers2D.so");

    // How often to refine
    refineInterval    1;

    // Field to be refinement on
    field             alpha.water;

    // Refine field in between lower..upper
    lowerRefineLevel  0.001;
    upperRefineLevel  0.999;

    // Have slower than 2:1 refinement
    nBufferLayers     1;

    // Refine cells only up to maxRefinement levels
    maxRefinement     3;

    // Stop refinement if maxCells reached
    maxCells          1000000;

    // Flux field and corresponding velocity field. Fluxes on changed
    // faces get recalculated by interpolating the velocity. Use 'none'
    // on surfaceScalarFields that do not need to be reinterpolated.
    correctFluxes
    (
        (phi none)
        (nHatf none)
        (rhoPhi none)
        (alphaPhi.water none)
        (meshPhi none)
        (meshPhi_0 none)
        (ghf none)
    );

    // Write the refinement level as a volScalarField
    dumpLevel       	true;
}

distributor
{
    type                    distributorMPI;

    libs                    ("libfvMeshDistributorsMPI.so");

    // How often to redistribute
    redistributionInterval  10;

    // Optional: imbalance limit above which redistribution is triggered
    maxImbalance            0.1;
}

// ************************************************************************* //
